data_image0
_chemical_formula_structural       C4H20I12N8Sn4
_chemical_formula_sum              "C4 H20 I12 N8 Sn4"
_cell_length_a       8.3212
_cell_length_b       14.8573
_cell_length_c       8.5918
_cell_angle_alpha    90
_cell_angle_beta     90
_cell_angle_gamma    90

_space_group_name_H-M_alt    "P 1"
_space_group_IT_number       1

loop_
  _space_group_symop_operation_xyz
  'x, y, z'

loop_
  _atom_site_type_symbol
  _atom_site_label
  _atom_site_symmetry_multiplicity
  _atom_site_fract_x
  _atom_site_fract_y
  _atom_site_fract_z
  _atom_site_occupancy
  C   C1        1.0  0.13268  0.40606  0.03928  1.0000
  C   C2        1.0  0.89778  0.63266  0.52225  1.0000
  C   C3        1.0  0.66944  0.13266  0.01483  1.0000
  C   C4        1.0  0.35692  0.90606  0.53822  1.0000
  H   H1        1.0  0.01017  0.36540  0.84302  1.0000
  H   H2        1.0  0.26517  0.29897  0.95790  1.0000
  H   H3        1.0  0.33530  0.35147  0.12774  1.0000
  H   H4        1.0  0.93035  0.45768  0.94390  1.0000
  H   H5        1.0  0.12919  0.45640  0.13358  1.0000
  H   H6        1.0  0.66103  0.59200  0.52687  1.0000
  H   H7        1.0  0.89125  0.52557  0.37043  1.0000
  H   H8        1.0  0.07819  0.57807  0.39654  1.0000
  H   H9        1.0  0.71133  0.68428  0.64427  1.0000
  H   H10       1.0  0.98036  0.68300  0.57232  1.0000
  H   H11       1.0  0.43983  0.09200  0.07091  1.0000
  H   H12       1.0  0.62781  0.02557  0.86833  1.0000
  H   H13       1.0  0.81603  0.07807  0.85303  1.0000
  H   H14       1.0  0.51610  0.18428  0.17434  1.0000
  H   H15       1.0  0.76153  0.18300  0.04563  1.0000
  H   H16       1.0  0.27922  0.86540  0.32158  1.0000
  H   H17       1.0  0.50398  0.79897  0.48529  1.0000
  H   H18       1.0  0.53612  0.85147  0.66555  1.0000
  H   H19       1.0  0.17948  0.95768  0.40418  1.0000
  H   H20       1.0  0.33327  0.95640  0.62976  1.0000
  I   I1        1.0  0.22610  0.67763  0.23655  1.0000
  I   I2        1.0  0.77390  0.32237  0.73655  1.0000
  I   I3        1.0  0.72610  0.82237  0.23655  1.0000
  I   I4        1.0  0.27390  0.17763  0.73655  1.0000
  I   I5        1.0  0.82461  0.58307  0.98010  1.0000
  I   I6        1.0  0.17539  0.41693  0.48010  1.0000
  I   I7        1.0  0.32461  0.91693  0.98010  1.0000
  I   I8        1.0  0.67539  0.08307  0.48010  1.0000
  I   I9        1.0  0.22340  0.67790  0.72550  1.0000
  I   I10       1.0  0.77660  0.32210  0.22550  1.0000
  I   I11       1.0  0.72340  0.82210  0.72550  1.0000
  I   I12       1.0  0.27660  0.17790  0.22550  1.0000
  N   N1        1.0  0.25230  0.34898  0.03901  1.0000
  N   N2        1.0  0.01682  0.40808  0.93652  1.0000
  N   N3        1.0  0.95734  0.57558  0.42178  1.0000
  N   N4        1.0  0.74797  0.63468  0.56804  1.0000
  N   N5        1.0  0.70414  0.07558  0.90396  1.0000
  N   N6        1.0  0.53410  0.13468  0.09209  1.0000
  N   N7        1.0  0.47398  0.84898  0.56204  1.0000
  N   N8        1.0  0.26566  0.90808  0.41438  1.0000
  Sn  Sn1       1.0  0.01415  0.75104  0.98140  1.0000
  Sn  Sn2       1.0  0.98585  0.24896  0.48140  1.0000
  Sn  Sn3       1.0  0.51415  0.74896  0.98140  1.0000
  Sn  Sn4       1.0  0.48585  0.25104  0.48140  1.0000
