data_image0
_chemical_formula_structural       C4H20I12N8Sn4
_chemical_formula_sum              "C4 H20 I12 N8 Sn4"
_cell_length_a       8.8379
_cell_length_b       8.8379
_cell_length_c       12.4066
_cell_angle_alpha    90
_cell_angle_beta     90
_cell_angle_gamma    90

_space_group_name_H-M_alt    "P 1"
_space_group_IT_number       1

loop_
  _space_group_symop_operation_xyz
  'x, y, z'

loop_
  _atom_site_type_symbol
  _atom_site_label
  _atom_site_symmetry_multiplicity
  _atom_site_fract_x
  _atom_site_fract_y
  _atom_site_fract_z
  _atom_site_occupancy
  C   C1        1.0  0.49447  0.03254  0.48083  1.0000
  C   C2        1.0  0.00429  0.53254  0.48095  1.0000
  C   C3        1.0  0.52664  0.03254  0.00651  1.0000
  C   C4        1.0  0.03520  0.53254  0.02476  1.0000
  H   H1        1.0  0.40324  0.96420  0.33591  1.0000
  H   H2        1.0  0.62792  0.85252  0.43572  1.0000
  H   H3        1.0  0.67334  0.94078  0.55820  1.0000
  H   H4        1.0  0.31668  0.11933  0.39873  1.0000
  H   H5        1.0  0.48004  0.11718  0.54536  1.0000
  H   H6        1.0  0.86052  0.46420  0.35956  1.0000
  H   H7        1.0  0.11512  0.35252  0.41139  1.0000
  H   H8        1.0  0.20616  0.44078  0.52020  1.0000
  H   H9        1.0  0.80162  0.61933  0.43694  1.0000
  H   H10       1.0  0.01539  0.61718  0.54582  1.0000
  H   H11       1.0  0.46577  0.96420  0.15930  1.0000
  H   H12       1.0  0.38371  0.85252  0.97996  1.0000
  H   H13       1.0  0.45943  0.94078  0.86534  1.0000
  H   H14       1.0  0.58875  0.11933  0.15081  1.0000
  H   H15       1.0  0.59593  0.11718  0.96369  1.0000
  H   H16       1.0  0.84050  0.46420  0.10213  1.0000
  H   H17       1.0  0.96049  0.35252  0.93399  1.0000
  H   H18       1.0  0.12781  0.44078  0.89109  1.0000
  H   H19       1.0  0.93589  0.61933  0.15808  1.0000
  H   H20       1.0  0.12671  0.61718  0.02938  1.0000
  I   I1        1.0  0.00000  0.00000  0.00835  1.0000
  I   I2        1.0  0.50000  0.50000  0.00835  1.0000
  I   I3        1.0  0.69870  0.19870  0.75040  1.0000
  I   I4        1.0  0.30130  0.80130  0.75040  1.0000
  I   I5        1.0  0.80130  0.69870  0.75040  1.0000
  I   I6        1.0  0.19870  0.30130  0.75040  1.0000
  I   I7        1.0  0.00000  0.00000  0.50970  1.0000
  I   I8        1.0  0.50000  0.50000  0.50970  1.0000
  I   I9        1.0  0.73403  0.23403  0.24900  1.0000
  I   I10       1.0  0.26597  0.76597  0.24900  1.0000
  I   I11       1.0  0.76597  0.73403  0.24900  1.0000
  I   I12       1.0  0.23403  0.26597  0.24900  1.0000
  N   N1        1.0  0.60628  0.93659  0.49042  1.0000
  N   N2        1.0  0.39837  0.03594  0.40073  1.0000
  N   N3        1.0  0.11548  0.43659  0.46822  1.0000
  N   N4        1.0  0.88092  0.53594  0.42282  1.0000
  N   N5        1.0  0.44964  0.93659  0.94797  1.0000
  N   N6        1.0  0.52798  0.03594  0.11187  1.0000
  N   N7        1.0  0.03887  0.43659  0.94458  1.0000
  N   N8        1.0  0.93156  0.53594  0.09994  1.0000
  Sn  Sn1       1.0  0.00000  0.00000  0.25380  1.0000
  Sn  Sn2       1.0  0.50000  0.50000  0.25380  1.0000
  Sn  Sn3       1.0  0.00000  0.00000  0.75370  1.0000
  Sn  Sn4       1.0  0.50000  0.50000  0.75370  1.0000
