data_image0
_chemical_formula_structural       C2H10I6N4Sn2
_chemical_formula_sum              "C2 H10 I6 N4 Sn2"
_cell_length_a       8.8821
_cell_length_b       8.8821
_cell_length_c       6.2698
_cell_angle_alpha    90
_cell_angle_beta     90
_cell_angle_gamma    90

_space_group_name_H-M_alt    "P 1"
_space_group_IT_number       1

loop_
  _space_group_symop_operation_xyz
  'x, y, z'

loop_
  _atom_site_type_symbol
  _atom_site_label
  _atom_site_symmetry_multiplicity
  _atom_site_fract_x
  _atom_site_fract_y
  _atom_site_fract_z
  _atom_site_occupancy
  C   C1        1.0  0.47649  0.96547  0.96718  1.0000
  C   C2        1.0  0.97649  0.46049  0.01834  1.0000
  H   H1        1.0  0.51061  0.05232  0.26814  1.0000
  H   H2        1.0  0.62218  0.14221  0.91758  1.0000
  H   H3        1.0  0.56690  0.04008  0.69120  1.0000
  H   H4        1.0  0.39059  0.89622  0.24954  1.0000
  H   H5        1.0  0.41536  0.87567  0.88193  1.0000
  H   H6        1.0  0.01061  0.68136  0.10668  1.0000
  H   H7        1.0  0.12218  0.54171  0.79050  1.0000
  H   H8        1.0  0.06690  0.35291  0.76514  1.0000
  H   H9        1.0  0.89059  0.57492  0.26948  1.0000
  H   H10       1.0  0.91536  0.35778  0.06610  1.0000
  I   I1        1.0  0.27770  0.22230  0.50000  1.0000
  I   I2        1.0  0.72230  0.77770  0.50000  1.0000
  I   I3        1.0  0.77770  0.27770  0.50000  1.0000
  I   I4        1.0  0.22230  0.72230  0.50000  1.0000
  I   I5        1.0  0.00000  0.00000  0.00000  1.0000
  I   I6        1.0  0.50000  0.50000  0.00000  1.0000
  N   N1        1.0  0.56251  0.05432  0.85402  1.0000
  N   N2        1.0  0.45724  0.97482  0.17352  1.0000
  N   N3        1.0  0.06251  0.45224  0.84949  1.0000
  N   N4        1.0  0.95724  0.58102  0.13493  1.0000
  Sn  Sn1       1.0  0.00000  0.00000  0.50000  1.0000
  Sn  Sn2       1.0  0.50000  0.50000  0.50000  1.0000
