LAMMPS (23 Jun 2022)

dimension       3
boundary        p p p
units           real
atom_style      full
variable        seed world 1428
variable        temperature equal 300.0
variable        temperature2 equal 300.0
variable        tempDamp equal 100.0 # approx 0.1 ps
variable        pressure equal 1.00
variable        pressureDamp equal 500.0
variable        freq equal 500
read_data       data.FAPI
Reading data file ...
  triclinic box = (-6.741 -0.165028 -1.1815) to (20.204 23.170027 20.830499) with tilt (-13.4725 0 0)
  reading atoms ...
  648 atoms
  scanning bonds ...
  scanning angles ...
  scanning dihedrals ...
  scanning impropers ...
  reading bonds ...
  378 bonds
  reading angles ...
  486 angles
  reading dihedrals ...
  432 dihedrals
  reading impropers ...
  162 impropers
Finding 1-2 1-3 1-4 neighbors ...
     3 = max # of 1-2 neighbors
     4 = max # of 1-3 neighbors
     6 = max # of 1-4 neighbors
     7 = max # of special neighbors
include         in.FAPI

bond_style          harmonic
angle_style         harmonic
dihedral_style      opls
improper_style      cvff
pair_style          hybrid lj/cut/coul/long 10.0 8.0 buck/coul/long 10.0 8.0
kspace_style        pppm 1e-4
special_bonds       amber
Finding 1-2 1-3 1-4 neighbors ...
     3 = max # of 1-2 neighbors
     4 = max # of 1-3 neighbors
     6 = max # of 1-4 neighbors
     7 = max # of special neighbors
variable x          equal 0.966
variable xA         equal 0.9666
variable APb        equal "70359906.629702/v_xA"
variable rPb        equal "0.131258*v_x"
variable rhoPb      equal "0.0*v_x"
variable xR         equal  0.9666
variable xAR        equal  0.6
variable APbI       equal "103496.133010/v_xAR"
variable rPbI       equal "0.321737*v_xR"
variable rhoPbI     equal "0.0*v_xR"
variable xIR        equal 0.92
variable xAIR       equal 1.2
variable AI         equal "22793.338582/v_xAIR"
variable rI         equal "0.482217*v_xIR"
variable rhoI       equal "696.94952*v_xIR"

# Force field
pair_coeff 1 1 lj/cut/coul/long     0.076           3.55                 #C-C
pair_coeff 2 2 lj/cut/coul/long     0.0157          1.06910              #H-H
pair_coeff 3 3 lj/cut/coul/long     0.030           2.50                 #Ha-Ha
pair_coeff 4 4 buck/coul/long       18994.4488183333           0.44363964      641.1935584
pair_coeff 5 5 lj/cut/coul/long     0.1700          3.25000              #N-N
pair_coeff 6 6 buck/coul/long       72791130.3845458          0.126795228     0
pair_coeff 2 4 lj/cut/coul/long     0.0574          2.75000              #I-H
pair_coeff 1 4 buck/coul/long       112936.714213   0.342426   0.000000  #I-C
pair_coeff 3 4 lj/cut/coul/long     0.0574          3.10000              #I-Ha
pair_coeff 4 5 buck/coul/long       112936.714213   0.342426   0.000000  #I-N
pair_coeff 4 6 buck/coul/long       172493.555016667         0.3109909842    0
pair_coeff 5 6 buck/coul/long       32690390.937995 0.150947   0.000000  #Pb-N
pair_coeff 2 6 lj/cut/coul/long     0.0140          2.26454              #Pb-H
pair_coeff 1 6 buck/coul/long       32690390.937995 0.150947   0.000000  #Pb-C
pair_coeff 3 6 lj/cut/coul/long     0.0140          2.70999              #Pb-Ha

#Bond Coeffs
bond_coeff    1   340.4000   1.0800     #C-Ha
bond_coeff    2   448.0000   1.3650     #C-N
bond_coeff    3   434.0000   1.0100     #H-N

#Angle Coeffs
angle_coeff    1   35.000    120.000    #C-N-H
angle_coeff    2   35.000    113.000    #H-N-H
angle_coeff    3   35.000    119.100    #Ha-C-N
angle_coeff    4   70.000    120.000    #N-C-N

# Dihedral coefficients
dihedral_coeff   1   0.000      3.900      0.000      0.000    #Ha-C-N-H
dihedral_coeff   2   0.000      3.900      0.000      0.000    #H-N-C-N

#impropers
improper_coeff   1   2.500      -1       2      #C-N-N-Ha
improper_coeff   2   2.500      -1       2      #N-C-H-H

thermo          500
thermo_style    custom step temp pe ke etotal press lx ly lz xy xz yz

# Minimization
min_style cg
#fix 1 all box/relax aniso 0.0 vmax 0.105
minimize        1.0e-4 1.0e-6 1000 10000
PPPM initialization ...
  G vector (1/distance) = 0.34586093
  grid = 20 27 16
  stencil order = 5
  estimated absolute RMS force accuracy = 0.027194427
  estimated relative force accuracy = 8.189521e-05
  3d grid and FFT values/proc = 3315 480
Generated 10 of 15 mixed pair_coeff terms from geometric mixing rule
  update every 1 steps, delay 0 steps, check yes
Step          Temp          PotEng         KinEng         TotEng         Press            Lx             Ly             Lz             Xy             Xz             Yz
0   0             -31542.669      0             -31542.669      18936.32       26.945         23.335055      22.011999     -13.4725        0              0
Loop time of 0.0243286 on 20 procs for 21 steps with 648 atoms

Minimization stats:
  Stopping criterion = energy tolerance
  Energy initial, next-to-last, final =
  Force two-norm initial, final = 817.7433 58.342635
  Force max component initial, final = 57.001039 5.2656541
  Final line search alpha, max atom move = 0.0061126738 0.032187226
  Iterations, force evaluations = 21 42

#unfix 1
write_data      data.min
System init for write_data ...
PPPM initialization ...
  G vector (1/distance) = 0.34586093
  grid = 20 27 16
  stencil order = 5
  estimated absolute RMS force accuracy = 0.027194427
  estimated relative force accuracy = 8.189521e-05
  3d grid and FFT values/proc = 3315 480
Generated 10 of 15 mixed pair_coeff terms from geometric mixing rule

# NVT
dump            myDump1 all atom 500 out.0.lammpstrj
fix             1 all temp/csvr 300 300 100 1428
fix             2 all shake 0.0001 20 100000 t 2 3
      54 = # of size 2 clusters
     108 = # of size 3 clusters
       0 = # of size 4 clusters
       0 = # of frozen angles
  find clusters CPU = 0.001 seconds
fix             3 all nve
timestep        2.0
velocity        all create 300 1428 dist gaussian
run             10000
PPPM initialization ...
  G vector (1/distance) = 0.34586093
  grid = 20 27 16
  stencil order = 5
  estimated absolute RMS force accuracy = 0.027194427
  estimated relative force accuracy = 8.189521e-05
  3d grid and FFT values/proc = 3315 480
Generated 10 of 15 mixed pair_coeff terms from geometric mixing rule
SHAKE stats (type/ave/delta/count) on step 21
Bond:   1   1.0965    0.00113446        54
Bond:   3   1.01175   0.00968059       216
Step          Temp          PotEng         KinEng         TotEng         Press            Lx             Ly             Lz             Xy             Xz             Yz
21   300           -32467.6        498.09336     -31969.507      9965.4314      26.945         23.335055      22.011999     -13.4725        0              0
Averages over the last 11 of 22 rows, steps 5500 to 10021:
Temp PotEng KinEng TotEng Press Lx Ly Lz Xy Xz Yz
295.362 -32044.7 490.393 -31554.3 11300.1 26.945 23.3351 22.012 -13.4725 0 0
Loop time of 5.20581 on 20 procs for 10000 steps with 648 atoms

unfix           1
unfix           2
unfix           3
write_data      data.NVT
System init for write_data ...
PPPM initialization ...
  G vector (1/distance) = 0.34586093
  grid = 20 27 16
  stencil order = 5
  estimated absolute RMS force accuracy = 0.027194427
  estimated relative force accuracy = 8.189521e-05
  3d grid and FFT values/proc = 3315 480
Generated 10 of 15 mixed pair_coeff terms from geometric mixing rule
undump          myDump1
reset_timestep  0
# NPT
dump            myDump2 all atom 500 out.1.lammpstrj
fix             1 all temp/csvr 300 300 100 1428
fix             2 all shake 0.0001 20 100000 t 2 3
      54 = # of size 2 clusters
     108 = # of size 3 clusters
       0 = # of size 4 clusters
       0 = # of frozen angles
  find clusters CPU = 0.001 seconds
fix             3 all nph tri 1 1 500
fix             4 all momentum 10000 linear 1 1 1
run             50000
PPPM initialization ...
  G vector (1/distance) = 0.34586093
  grid = 20 27 16
  stencil order = 5
  estimated absolute RMS force accuracy = 0.027194427
  estimated relative force accuracy = 8.189521e-05
  3d grid and FFT values/proc = 3315 480
Generated 10 of 15 mixed pair_coeff terms from geometric mixing rule
SHAKE stats (type/ave/delta/count) on step 0
Bond:   1   1.07999   2.7718e-05        54
Bond:   3   1.00999   3.85654e-05      216
Step          Temp          PotEng         KinEng         TotEng         Press            Lx             Ly             Lz             Xy             Xz             Yz
0   284.36798     -32034.59       472.13935     -31562.45       11055.588      26.945         23.335055      22.011999     -13.4725        0              0
Averages over the last 51 of 101 rows, steps 25000 to 50000:
Temp PotEng KinEng TotEng Press Lx Ly Lz Xy Xz Yz
300.32 -32045.9 498.624 -31547.2 71.2176 27.561 23.8428 22.4723 -13.8168 0.0118201 -0.0239774
Loop time of 30.7611 on 20 procs for 50000 steps with 648 atoms

unfix           1
unfix           2
unfix           3
unfix           4
undump          myDump2
reset_timestep  0
write_restart   restart.file
System init for write_restart ...
PPPM initialization ...
  G vector (1/distance) = 0.35018631
  grid = 20 27 18
  stencil order = 5
  estimated absolute RMS force accuracy = 0.021667026
  estimated relative force accuracy = 6.5249605e-05
  3d grid and FFT values/proc = 3536 600
Generated 10 of 15 mixed pair_coeff terms from geometric mixing rule
write_data      data.eq
System init for write_data ...
PPPM initialization ...
  G vector (1/distance) = 0.35018631
  grid = 20 27 18
  stencil order = 5
  estimated absolute RMS force accuracy = 0.021667026
  estimated relative force accuracy = 6.5249605e-05
  3d grid and FFT values/proc = 3536 600
Generated 10 of 15 mixed pair_coeff terms from geometric mixing rule
