LAMMPS (23 Jun 2022)

###
dimension       3
boundary        p p p
units           metal
atom_style      full
variable        seed world 1428
variable        freq equal 500
variable        temperature equal 300.0
variable        temperature2 equal 300.0
variable        tempDamp equal 100.0 # approx 0.1 ps
variable        pressure equal 1.00
variable        pressureDamp equal 500.0

read_data       data.CPBr
Reading data file ...
  triclinic box = (0 0 0) to (8.207 8.255 11.759) with tilt (0 0 0)
  reading atoms ...
  20 atoms
Finding 1-2 1-3 1-4 neighbors ...
     0 = max # of 1-2 neighbors
     0 = max # of 1-3 neighbors
     0 = max # of 1-4 neighbors
     1 = max # of special neighbors
mass            1 79.904     # Br
mass            2 132.904999 # Cs
mass            3 204.199997 # Pb
pair_style      lj/cut/coul/long 8.0 10.0
pair_modify     mix arithmetic
neigh_modify    every 1
kspace_style    pppm 1e-4
dielectric 1.0
variable ABr  equal "0.01023"
variable rBr  equal "4.129"
variable ACs  equal "0.5784"
variable rCs  equal "2.927"
variable APb  equal "0.01071"
variable rPb  equal "2.524"
pair_coeff      1 1 0.01023    4.129
pair_coeff      2 2 0.5784    2.927
pair_coeff      3 3 0.01071    2.524
thermo          500
thermo_style    custom step temp pe ke etotal press lx ly lz xy xz yz
# Minimization
min_style cg
fix 1 all box/relax aniso 0.0 vmax 0.01
minimize        1.0e-3 1.0e-5 1000 10000
PPPM initialization ...
  G vector (1/distance) = 0.28932153
  grid = 6 6 8
  stencil order = 5
  estimated absolute RMS force accuracy = 0.00027650881
  estimated relative force accuracy = 1.9202474e-05
  3d grid and FFT values/proc = 1040 36
Generated 3 of 3 mixed pair_coeff terms from arithmetic mixing rule
  update every 1 steps, delay 0 steps, check yes
Step          Temp          PotEng         KinEng         TotEng         Press            Lx             Ly             Lz             Xy             Xz             Yz
0   0             -47.126709      0             -47.126709     -2955.9165      8.207          8.255          11.759         0              0              0
Loop time of 0.00139313 on 10 procs for 1 steps with 20 atoms

Minimization stats:
  Stopping criterion = energy tolerance
  Energy initial, next-to-last, final =
  Force two-norm initial, final = 2.7117016 0.70712053
  Force max component initial, final = 1.84041 0.49553948
  Final line search alpha, max atom move = 0.005433572 0.0026925495
  Iterations, force evaluations = 1 2

unfix 1
write_data      data.min
System init for write_data ...
PPPM initialization ...
  G vector (1/distance) = 0.28971864
  grid = 6 6 8
  stencil order = 5
  estimated absolute RMS force accuracy = 0.00027208839
  estimated relative force accuracy = 1.8895493e-05
  3d grid and FFT values/proc = 1040 36
Generated 3 of 3 mixed pair_coeff terms from arithmetic mixing rule
# NVT
dump            myDump1 all atom 500 out.0.lammpstrj
fix             1 all temp/csvr 300 300 100 1428
fix             2 all nve
timestep        0.002
velocity        all create 300 1428 dist gaussian
run             10000
PPPM initialization ...
  G vector (1/distance) = 0.28971864
  grid = 6 6 8
  stencil order = 5
  estimated absolute RMS force accuracy = 0.00027208839
  estimated relative force accuracy = 1.8895493e-05
  3d grid and FFT values/proc = 1040 36
Generated 3 of 3 mixed pair_coeff terms from arithmetic mixing rule
Step          Temp          PotEng         KinEng         TotEng         Press            Lx             Ly             Lz             Xy             Xz             Yz
1   300           -47.140466      0.73678283    -46.403684      1290.9155      8.1538753      8.1989354      11.723641      0              0              0
Averages over the last 11 of 22 rows, steps 5500 to 10001:
Temp PotEng KinEng TotEng Press Lx Ly Lz Xy Xz Yz
165.412 -46.7579 0.406244 -46.3517 3393.05 8.15388 8.19894 11.7236 0 0 0
Loop time of 1.5877 on 10 procs for 10000 steps with 20 atoms

unfix           1
unfix           2
undump          myDump1
write_data      data.NVT
System init for write_data ...
PPPM initialization ...
  G vector (1/distance) = 0.28971864
  grid = 6 6 8
  stencil order = 5
  estimated absolute RMS force accuracy = 0.00027208839
  estimated relative force accuracy = 1.8895493e-05
  3d grid and FFT values/proc = 1040 36
Generated 3 of 3 mixed pair_coeff terms from arithmetic mixing rule
# NPT
dump            myDump2 all atom 500 out.0.lammpstrj
fix             1 all temp/csvr 300 300 100 1428
fix             2 all nph tri 1 1 500
fix             3 all momentum 10000 linear 1 1 1
run             10000
PPPM initialization ...
  G vector (1/distance) = 0.28971864
  grid = 6 6 8
  stencil order = 5
  estimated absolute RMS force accuracy = 0.00027208839
  estimated relative force accuracy = 1.8895493e-05
  3d grid and FFT values/proc = 1040 36
Generated 3 of 3 mixed pair_coeff terms from arithmetic mixing rule
Step          Temp          PotEng         KinEng         TotEng         Press            Lx             Ly             Lz             Xy             Xz             Yz
10001   177.43967     -46.796017      0.43578167    -46.360235      2875.4424      8.1538753      8.1989354      11.723641      0              0              0
Averages over the last 11 of 22 rows, steps 15500 to 20001:
Temp PotEng KinEng TotEng Press Lx Ly Lz Xy Xz Yz
185.9 -46.7623 0.456561 -46.3058 1893.53 8.17335 8.22351 11.7558 0.000956679 -0.000566944 -0.000478446
Loop time of 1.71651 on 10 procs for 10000 steps with 20 atoms

unfix           1
unfix           2
unfix           3
undump          myDump2
reset_timestep  0
write_restart   restart.file
System init for write_restart ...
PPPM initialization ...
  G vector (1/distance) = 0.28942997
  grid = 6 6 8
  stencil order = 5
  estimated absolute RMS force accuracy = 0.00027527593
  estimated relative force accuracy = 1.9116855e-05
  3d grid and FFT values/proc = 1040 36
Generated 3 of 3 mixed pair_coeff terms from arithmetic mixing rule
write_data      data.eq
System init for write_data ...
PPPM initialization ...
  G vector (1/distance) = 0.28942997
  grid = 6 6 8
  stencil order = 5
  estimated absolute RMS force accuracy = 0.00027527593
  estimated relative force accuracy = 1.9116855e-05
  3d grid and FFT values/proc = 1040 36
Generated 3 of 3 mixed pair_coeff terms from arithmetic mixing rule
