##CIF_1.1

data_sm_global
#Used dictionaries
loop_
_audit_conform_dict_name
_audit_conform_dict_version
_audit_conform_dict_location
cif_core.dic 	2.4.2 	.
cif_pd.dic 		1.0.1 	.
cif_sm.dic 		0.1 	'redaktion.landolt-boernstein(at)springer.com'

#About this content and reference
_sm_credits_copyright
;PAULING FILE Multinaries Edition - 2012. SpringerMaterials Release 2014.
http://www.paulingfile.com
Unique LPF ID Number SD1624026
Project Coordinator: Shuichi Iwata
Section-Editors: Karin Cenzual (Crystal Structures), Hiroaki Okamoto (Phase 
Diagrams), Fritz Hulliger (Physical Properties)
(c) Springer & Material Phases Data System (MPDS), Switzerland & National 
Institute for Materials Science (NIMS), Japan 2014.
(Data generated pre-2002: (c) Springer & MPDS & NIMS; 
post-2001: (c) Springer & MPDS)
All Rights Reserved. Version 2014.06.
;

_audit_creation_method
;This data have been compiled from the crystallographic datasheet for 
"CsPbBr3 tetragonal (CsPbBr3 ht1) Crystal Structure" 
taken from SpringerMaterials (sm_isp_sd_1624026).
;

_publ_section_references
;Rodova M., Brozek J., Knizek K., Nitsch K.: <i>Phase transitions in ternary caesium lead bromide</i>. Journal of Thermal Analysis and Calorimetry <b>71</b> (2003) 667-673.
;

#Phase classification
_sm_phase_labels				'CsPbBr3 ht1'
_chemical_name_mineral			''
_sm_chemical_compound_class		'bromide'
_sm_phase_prototype				'ZnMn3 C'
_sm_pearson_symbol				'tP5'
_symmetry_Int_Tables_number		123
_sm_sample_details
;sample prepared from CsBr, PbBr<sub>2</sub>, 
powder (determination of cell parameters)
;
_sm_measurement_details
;automatic diffractometer (determination of cell parameters), 
X-rays, Cu K&#x03b1; (determination of cell parameters), 
<i>T</i> = 373 K (determination of cell parameters)
;
_sm_interpretation_details
;cell parameters determined and structure type assigned; temperature dependence studied
;

data_sm_isp_SD1624026-standardized_unitcell
#Cell Parameters
_cell_length_a					8.259
_cell_length_b					8.259
_cell_length_c					5.897
_cell_angle_alpha				90
_cell_angle_beta				90
_cell_angle_gamma				90
_sm_length_ratio_ab				1.000
_sm_length_ratio_bc				1.401
_sm_length_ratio_ca				0.714
_cell_volume 					402.2
_symmetry_space_group_name_H-M	'P4/mbm'
_symmetry_Int_Tables_number		127
_cell_formula_units_Z			2
_sm_cell_transformation
;No transformation from published to standardized cell parameters necessary.
;

#Atom Coordinates
loop_
_atom_site_label
_atom_site_type_symbol
_atom_site_Wyckoff_symbol
_sm_site_symmetry
_atom_site_fract_x
_atom_site_fract_y
_atom_site_fract_z
_atom_site_occupancy
_sm_coordination_number
_sm_atomic_environment_type
Br1 'Br' .4h .m.2m 0.2281 0.7281 0.5 1 ? '?'
Cs1 'Cs' .2d .m.mm 0 0.5 0 1 ? '?'
Pb1 'Pb' .2b .4/m.. 0 0 0.5 1 ? '?'
Br2 'Br' .2a .4/m.. 0 0 0 1 ? '?'

_sm_atom_site_transformation
;No transformation from published to standardized cell parameters necessary.
Atom coordinates assigned by editor.
;

data_sm_isp_SD1624026-published_cell
#Cell Parameters
_cell_length_a					8.259
_cell_length_b					8.259
_cell_length_c					5.897
_cell_angle_alpha				90
_cell_angle_beta				90
_cell_angle_gamma				90
_sm_length_ratio_ab				1.000
_sm_length_ratio_bc				1.401
_sm_length_ratio_ca				0.714
_cell_volume 					402.24
_symmetry_space_group_name_H-M	'P4/mbm'
_symmetry_Int_Tables_number		127
_cell_formula_units_Z			2

#Atom Coordinates
loop_
_atom_site_label
_atom_site_type_symbol
_atom_site_Wyckoff_symbol
_sm_site_symmetry
_atom_site_fract_x
_atom_site_fract_y
_atom_site_fract_z
_atom_site_occupancy
_sm_coordination_number
_sm_atomic_environment_type
? ? ? ? ? ? ? ? ? ?

data_sm_isp_SD1624026-niggli_reduced_cell
#Cell Parameters
_cell_length_a					5.897
_cell_length_b					8.259
_cell_length_c					8.259
_cell_angle_alpha				90
_cell_angle_beta				90
_cell_angle_gamma				90
_sm_length_ratio_ab				0.714
_sm_length_ratio_bc				1.000
_sm_length_ratio_ca				1.401
_cell_volume 					402.24
_symmetry_space_group_name_H-M	''
_symmetry_Int_Tables_number		?
_cell_formula_units_Z			2

#Atom Coordinates
loop_
_atom_site_label
_atom_site_type_symbol
_atom_site_Wyckoff_symbol
_sm_site_symmetry
_atom_site_fract_x
_atom_site_fract_y
_atom_site_fract_z
_atom_site_occupancy
_sm_coordination_number
_sm_atomic_environment_type
? ? ? ? ? ? ? ? ? ?

