LAMMPS (23 Jun 2022)

###
dimension       3
boundary        p p p
units           real
atom_style      full

variable        p_id world   1

variable        temperature equal 300.0
variable        temperature2 equal 300.0
variable        tempDamp equal 100 # ps

variable        pressure equal 1.00
variable        pressureDamp equal 500 #ps

variable        seed world 1428

read_data       data.CPI
Reading data file ...
  triclinic box = (0 0 0) to (17.712 17.152 24.944) with tilt (0 0 0)
  reading atoms ...
  160 atoms
Finding 1-2 1-3 1-4 neighbors ...
     0 = max # of 1-2 neighbors
     0 = max # of 1-3 neighbors
     0 = max # of 1-4 neighbors
     1 = max # of special neighbors

mass            1 132.904999 # Cs
mass            2 126.90447  # I
mass            3 204.199997 # Pb

variable        freq equal 500

pair_style      lj/cut/coul/long 10.0 10.0
pair_modify     mix arithmetic
neighbor        0.3 bin
neigh_modify    check yes delay 0
kspace_style    pppm 1e-4
dielectric 1.0

variable AI     equal "0.042784417"
variable rI     equal "5.04975"
variable ACs    equal "0.0898565009"
variable rCs    equal "3.521013"
variable ACsI   equal "0.0467571702"
variable rCsI   equal "4.43790"

variable APb    equal "0.0942780"
variable rPb    equal "4.043"
variable APbI   equal "4.7050"
variable rPbI   equal "2.800"
variable APbCs   equal "4.01050"
variable rPbCs   equal "4.100"

pair_coeff      1 1 0.0898565009    3.521013
pair_coeff      2 2 0.042784417     5.04975
pair_coeff      3 3 0.094278    4.043
pair_coeff      1 2 0.0467571702   4.4379
pair_coeff      2 3 4.705   2.8
pair_coeff      1 3 4.0105  4.1

thermo          500
thermo_style    custom step temp pe ke etotal press lx ly lz xy xz yz
restart         500 restart.0 restart.2

# Minimization

# Minimization
min_style cg
fix 1 all box/relax aniso 0.0 vmax 0.01
minimize        1.0e-3 1.0e-5 1000 10000
PPPM initialization ...
  G vector (1/distance) = 0.28323587
  grid = 12 12 15
  stencil order = 5
  estimated absolute RMS force accuracy = 0.016364922
  estimated relative force accuracy = 4.9282476e-05
  3d grid and FFT values/proc = 5780 2160
Generated 0 of 3 mixed pair_coeff terms from arithmetic mixing rule
  update every 1 steps, delay 0 steps, check yes
Step          Temp          PotEng         KinEng         TotEng         Press            Lx             Ly             Lz             Xy             Xz             Yz
0   0             -16614.706      0             -16614.706     -45889.615      17.712         17.152         24.944         0              0              0
Loop time of 0.022251 on 1 procs for 9 steps with 160 atoms

Minimization stats:
  Stopping criterion = energy tolerance
  Energy initial, next-to-last, final =
  Force two-norm initial, final = 8789.5457 355.51105
  Force max component initial, final = 5257.0642 278.54552
  Final line search alpha, max atom move = 1.397275e-05 0.0038920469
  Iterations, force evaluations = 9 10

unfix 1
write_data      data.min
System init for write_data ...
PPPM initialization ...
  G vector (1/distance) = 0.28962932
  grid = 12 12 15
  stencil order = 5
  estimated absolute RMS force accuracy = 0.012798673
  estimated relative force accuracy = 3.8542823e-05
  3d grid and FFT values/proc = 5780 2160
Generated 0 of 3 mixed pair_coeff terms from arithmetic mixing rule
reset_timestep  0

# NVT
dump            myDump1 all atom 500 out.0.lammpstrj
fix             1 all temp/csvr 300 300 100 1428
fix             2 all nve

timestep        2.0

velocity        all create 300 1428 dist gaussian
run             10000
PPPM initialization ...
  G vector (1/distance) = 0.28962932
  grid = 12 12 15
  stencil order = 5
  estimated absolute RMS force accuracy = 0.012798673
  estimated relative force accuracy = 3.8542823e-05
  3d grid and FFT values/proc = 5780 2160
Generated 0 of 3 mixed pair_coeff terms from arithmetic mixing rule
Step          Temp          PotEng         KinEng         TotEng         Press            Lx             Ly             Lz             Xy             Xz             Yz
0   300           -17414.407      142.18464     -17272.222      2345.5843      16.17132       16.006532      23.015905      0              0              0
Averages over the last 11 of 21 rows, steps 5000 to 10000:
Temp PotEng KinEng TotEng Press Lx Ly Lz Xy Xz Yz
288.15 -17314 136.568 -17177.4 12946.8 16.1713 16.0065 23.0159 0 0 0
Loop time of 4.7287 on 1 procs for 10000 steps with 160 atoms

unfix           1
unfix           2

write_data      data.NVT
System init for write_data ...
PPPM initialization ...
  G vector (1/distance) = 0.28962932
  grid = 12 12 15
  stencil order = 5
  estimated absolute RMS force accuracy = 0.012798673
  estimated relative force accuracy = 3.8542823e-05
  3d grid and FFT values/proc = 5780 2160
Generated 0 of 3 mixed pair_coeff terms from arithmetic mixing rule

undump          myDump1
reset_timestep  0

# NPT

dump            myDump2 all atom 500 out.ortho.lammpstrj

fix             1 all temp/csvr 300 300 100 1428
fix             2 all nph tri 1 1 500
fix             3 all momentum 10000 linear 1 1 1

run             10000
PPPM initialization ...
  G vector (1/distance) = 0.28962932
  grid = 12 12 15
  stencil order = 5
  estimated absolute RMS force accuracy = 0.012798673
  estimated relative force accuracy = 3.8542823e-05
  3d grid and FFT values/proc = 5780 2160
Generated 0 of 3 mixed pair_coeff terms from arithmetic mixing rule
Step          Temp          PotEng         KinEng         TotEng         Press            Lx             Ly             Lz             Xy             Xz             Yz
0   287.62881     -17308.549      136.32133     -17172.227      12578.278      16.17132       16.006532      23.015905      0              0              0
Averages over the last 11 of 21 rows, steps 5000 to 10000:
Temp PotEng KinEng TotEng Press Lx Ly Lz Xy Xz Yz
284.273 -17304.4 134.731 -17169.6 677.439 16.36 16.3436 23.095 0.0340618 0.0350272 -0.0121363
Loop time of 8.0533 on 1 procs for 10000 steps with 160 atoms

unfix           1
unfix           2
unfix           3

undump          myDump2

reset_timestep  0

write_restart   restart.file
System init for write_restart ...
PPPM initialization ...
  G vector (1/distance) = 0.28905247
  grid = 12 12 15
  stencil order = 5
  estimated absolute RMS force accuracy = 0.013030726
  estimated relative force accuracy = 3.9241644e-05
  3d grid and FFT values/proc = 5780 2160
Generated 0 of 3 mixed pair_coeff terms from arithmetic mixing rule
write_data      data.eq
System init for write_data ...
PPPM initialization ...
  G vector (1/distance) = 0.28905247
  grid = 12 12 15
  stencil order = 5
  estimated absolute RMS force accuracy = 0.013030726
  estimated relative force accuracy = 3.9241644e-05
  3d grid and FFT values/proc = 5780 2160
Generated 0 of 3 mixed pair_coeff terms from arithmetic mixing rule
